OPT_V10/Two_days_MYC3/powerflow_results_t17.txt
Pandapower Network Debug Info
==================================================

BUS:
       vm_pu  va_degree      p_mw    q_mvar
0   0.993078   0.120666  0.000828  0.001093
1   0.988463   0.201781  0.001661  0.001820
2   0.984227   0.298952  0.001981  0.003368
3   0.989646   0.185069  0.002361  0.003495
4   0.999879   0.000707  0.009963  0.011354
5   0.999865   0.000714  0.012140  0.008148
6   0.999854   0.000761  0.013372  0.012097
7   0.999926   0.000532  0.000000  0.000000
8   0.999926   0.000538  0.000000  0.000000
9   1.000000   0.000000 -0.042450 -0.046473
10  1.000000   0.000006  0.000000  0.000000
--------------------------------------------------

LINE:
   p_from_mw  q_from_mvar   p_to_mw  q_to_mvar         pl_mw       ql_mvar  i_from_ka   i_to_ka      i_ka  vm_from_pu  va_from_degree  vm_to_pu  va_to_degree  loading_percent
0   0.042440     0.042473 -0.042436  -0.042471  3.526287e-06  2.749504e-06   0.002311  0.002311  0.002311    1.000000        0.000006  0.999926      0.000532         1.004801
1   0.035477     0.031601 -0.035476  -0.031600  1.745770e-06  1.361205e-06   0.001829  0.001829  0.001829    0.999926        0.000532  0.999879      0.000707         0.795142
2   0.006949     0.009870 -0.006881  -0.009816  6.815514e-05  5.314168e-05   0.017424  0.017424  0.017424    0.999926        0.000538  0.993078      0.120666         7.575435
3  -0.025512    -0.020245  0.025512   0.020246  3.669240e-07  2.860967e-07   0.001254  0.001254  0.001254    0.999865        0.000714  0.999879      0.000707         0.545107
4  -0.013372    -0.012097  0.013372   0.012097  1.590643e-07  1.240250e-07   0.000694  0.000694  0.000694    0.999854        0.000761  0.999865      0.000714         0.301802
5  -0.003656    -0.005199  0.003680   0.005218  2.446117e-05  1.907277e-05   0.009281  0.009281  0.009281    0.988463        0.201781  0.993078      0.120666         4.035217
6  -0.002361    -0.003495  0.002373   0.003505  1.212820e-05  9.456561e-06   0.006152  0.006152  0.006152    0.989646        0.185069  0.993078      0.120666         2.674633
7  -0.001981    -0.003368  0.001995   0.003380  1.425936e-05  1.111826e-05   0.005731  0.005731  0.005731    0.984227        0.298952  0.988463      0.201781         2.491579
--------------------------------------------------

TRAFO:
    p_hv_mw  q_hv_mvar   p_lv_mw  q_lv_mvar    pl_mw  ql_mvar   i_hv_ka   i_lv_ka  vm_hv_pu  va_hv_degree  vm_lv_pu  va_lv_degree  loading_percent
0  0.006959   0.010869 -0.006949  -0.009870  0.00001    0.001  0.000497  0.017424  0.999926      0.000532  0.999926      0.000538         0.129072
1  0.042450   0.046473 -0.042440  -0.042473  0.00001    0.004  0.000519  0.002311  1.000000      0.000000  1.000000      0.000006         0.157356
--------------------------------------------------
